base_code/iris_codes copy/case47custom.m
function mpc = case47custom
%CASE56CUSTOM    Power flow data for SCE 56 bus case.
%   Please see CASEFORMAT for details on the case file format.
%   This data was transcribed from Farivar et al. 2011
%   (http://www.its.caltech.edu/~mfarivar/PES2012_Farivar.pdf) 
%   on 26-Jan-2013 by Cristofer Flowers, rev 1.0
%   See end of file for warnings generated during conversion.
%
%   
%   
%  
%   MATPOWER
%   $Id: case56custom.m,v 1.0 2012/02/26 18:08:15 ray Exp $

%% MATPOWER Case Format : Version 2
mpc.version = '2';

%%-----  Power Flow Data  -----%%
%% system MVA base
mpc.baseMVA = 1;

%% bus data
%	bus_i	type	Pd	Qd	Gs	Bs	area	Vm	Va	baseKV	zone	Vmax	Vmin
mpc.bus = [
	1	3	27.00	13.07	0	6.0	1	1	0	12.35	1	1.03	0.97;
	2	1	0      	0		0	0	1	1	0	12.35	1	1.03	0.97;
	3	1	0      	0		0	1.2	1	1	0	12.35	1	1.03	0.97;
	4	1	0      	0		0	0	1	1	0	12.35	1	1.03	0.97;
	5	1	0      	0		0	0	1	1	0	12.35	1	1.03	0.97;
	6	1	0      	0		0	0	1	1	0	12.35	1	1.03	0.97;
	7	1	0      	0		0	0	1	1	0	12.35	1	1.03	0.97;
	8	1	0      	0		0	0	1	1	0	12.35	1	1.03	0.97;
	9	1	0      	0		0	0	1	1	0	12.35	1	1.03	0.97;
	10	1	0      	0		0	0	1	1	0	12.35	1	1.03	0.97;
	11	1	0.6030 	0.2920	0	0	1	1	0	12.35	1	1.03	0.97;
	12	1	0.4050 	0.1962	0	0	1	1	0	12.35	1	1.03	0.97;
	13	1	0.0   	0		0	0	1	1	0	12.35	1	1.03	0.97;
	14	1	0.8010 	0.3879	0	0	1	1	0	12.35	1	1.03	0.97;
	15	1	0      	0		0	0	1	1	0	12.35	1	1.03	0.97;
	16	1	0.0630 	0.0305	0	0	1	1	0	12.35	1	1.03	0.97;
	17	1	0.0		0		0	0	1	1	0	12.35	1	1.03	0.97;
	18	1	0.6030 	0.2920	0	0	1	1	0	12.35	1	1.03	0.97;
	19	1	0.0		0		0	0	1	1	0	12.35	1	1.03	0.97;
	20	1	0      	0		0	0	1	1	0	12.35	1	1.03	0.97;
	21	1	0.4050 	0.1962	0	0	1	1	0	12.35	1	1.03	0.97;
	22	1	2.0070 	0.9720	0	0	1	1	0	12.35	1	1.03	0.97;
	23	1	0.0    	0		0	0	1	1	0	12.35	1	1.03	0.97;
	24	1	0.0    	0		0	0	1	1	0	12.35	1	1.03	0.97;
	25	1	0.4050 	0.1962	0	0	1	1	0	12.35	1	1.03	0.97;
	26	1	0.1800 	0.0872	0	0	1	1	0	12.35	1	1.03	0.97;
	27	1	0      	0		0	0	1	1	0	12.35	1	1.03	0.97;
	28	1	0.1170 	0.0567	0	0	1	1	0	12.35	1	1.03	0.97;
	29	1	0.1170 	0.0567	0	0	1	1	0	12.35	1	1.03	0.97;
	30	1	0.1800 	0.0872	0	0	1	1	0	12.35	1	1.03	0.97;
	31	1	0.0630 	0.0305	0	0	1	1	0	12.35	1	1.03	0.97;
	32	1	0.1170 	0.0567	0	0	1	1	0	12.35	1	1.03	0.97;
	33	1	0.2430 	0.1177	0	0	1	1	0	12.35	1	1.03	0.97;
	34	1	0.1800 	0.0872	0	0	1	1	0	12.35	1	1.03	0.97;
	35	1	0      	0		0	0	1	1	0	12.35	1	1.03	0.97;
	36	1	0.2430 	0.1177	0	0	1	1	0	12.35	1	1.03	0.97;
	37	1	0	    0		0	1.8	1	1	0	12.35	1	1.03	0.97;
	38	1	0.4050 	0.1962	0	0	1	1	0	12.35	1	1.03	0.97;
	39	1	1.2060 	0.5841	0	0	1	1	0	12.35	1	1.03	0.97;
	40	1	0.1170 	0.0567	0	0	1	1	0	12.35	1	1.03	0.97;
	41	1	0.6030 	0.2920	0	0	1	1	0	12.35	1	1.03	0.97;
	42	1	0.1170 	0.0567	0	0	1	1	0	12.35	1	1.03	0.97;
	43	1	0 	    0		0	0	1	1	0	12.35	1	1.03	0.97;
	44	1	0.4050 	0.1962	0	0	1	1	0	12.35	1	1.03	0.97;
	45	1	0.1800 	0.0872	0	0	1	1	0	12.35	1	1.03	0.97;
	46	1	0.4050 	0.1962	0	0	1	1	0	12.35	1	1.03	0.97;
	47	1	0 	    0		0	1.8	1	1	0	12.35	1	1.03	0.97;
];

%% generator data
%	bus	Pg	Qg	Qmax	Qmin	Vg	mBase	status	Pmax	Pmin	Pc1	Pc2	Qc1min	Qc1max	Qc2min	Qc2max	ramp_agc	ramp_10	ramp_30	ramp_q	apf
mpc.gen = [
	1	0	0	100	-100	1	1	1	100	0	0	0	0	0	0	0	0	0	0	0	0;
	];

%% branch data
%	fbus	tbus	r	x	b	rateA	rateB	rateC	ratio	angle	status	angmin	angmax
mpc.branch = [
	1	2   0.0016981	0.0052975	0   9900   0   0   0   0   1   -360   360;
	2	13  0.00001		0.00001		0   9900   0   0   0   0   1   -360   360;
	2	3   0.0002032	0.0006031	0   9900   0   0   0   0   1   -360   360;
    3	4	0.0003015	0.0006031	0   9900   0   0   0   0   1   -360   360;
    3	14	0.0006031	0.0002032	0   9900   0   0   0   0   1   -360   360;
    3	15	0.0014030	0.0003015	0   9900   0   0   0   0   1   -360   360;
    4	20	0.0022029	0.0003999	0   9900   0   0   0   0   1   -360   360;
    4	5	0.0007015	0.0011998	0   9900   0   0   0   0   1   -360   360;
    5	26	0.0003999	0.0000983	0   9900   0   0   0   0   1   -360   360;
    5	6	0.0000983	0.0002032	0   9900   0   0   0   0   1   -360   360;
    6	27	0.0011014	0.0003999	0   9900   0   0   0   0   1   -360   360;
    6	7	0.0002032	0.0003015	0   9900   0   0   0   0   1   -360   360;
    7	32	0.0004982	0.0000983	0   9900   0   0   0   0   1   -360   360;
    7	8	0.0000983	0.0000983	0   9900   0   0   0   0   1   -360   360;
    8	40	0.0003015	0.0000983	0   9900   0   0   0   0   1   -360   360;
    8	39	0.0015997	0.0003015	0   9900   0   0   0   0   1   -360   360;
    8	41	0.0007015	0.0002032	0   9900   0   0   0   0   1   -360   360;
    8	35	0.0004982	0.0000983	0   9900   0   0   0   0   1   -360   360;
    8	9	0.0002032	0.0002032	0   9900   0   0   0   0   1   -360   360;
    9	10	0.0000983	0.0000983	0   9900   0   0   0   0   1   -360   360;
    9	42	0.0010031	0.0003015	0   9900   0   0   0   0   1   -360   360;
    10	11	0.0007015	0.0004982	0   9900   0   0   0   0   1   -360   360;
    10	46	0.0015014	0.0007998	0   9900   0   0   0   0   1   -360   360;
    11	47	0.0002032	0.0000983	0   9900   0   0   0   0   1   -360   360;
    11	12	0.0004982	0.0003015	0   9900   0   0   0   0   1   -360   360;
    15	18	0.0003015	0.0000983	0   9900   0   0   0   0   1   -360   360;
    15	16	0.0007015	0.0000983	0   9900   0   0   0   0   1   -360   360;
    16	17	0.00001		0.00001		0   9900   0   0   0   0   1   -360   360;
    18	19	0.00001		0.00001		0   9900   0   0   0   0   1   -360   360;
    20	21	0.0007998	0.0006031	0   9900   0   0   0   0   1   -360   360;
    20	25	0.0014030	0.0003015	0   9900   0   0   0   0   1   -360   360;
    21	24	0.00001		0.00001		0   9900   0   0   0   0   1   -360   360;
    21	22	0.0012981	0.0003015	0   9900   0   0   0   0   1   -360   360;
    22	23	0.00001		0.00001		0   9900   0   0   0   0   1   -360   360;
    27	31	0.0003015	0.0000983	0   9900   0   0   0   0   1   -360   360;
    27	28	0.0007015	0.0002032	0   9900   0   0   0   0   1   -360   360;
    28	29	0.0007015	0.0002032	0   9900   0   0   0   0   1   -360   360;
    29	30	0.0003999	0.0000983	0   9900   0   0   0   0   1   -360   360;
    32	33	0.0003015	0.0000983	0   9900   0   0   0   0   1   -360   360;
    33	34	0.0002032	0.00001		0   9900   0   0   0   0   1   -360   360;
    35	36	0.0004982	0.0000983	0   9900   0   0   0   0   1   -360   360;
    35	37	0.0004982	0.0003015	0   9900   0   0   0   0   1   -360   360;
    35	38	0.0007015	0.0000983	0   9900   0   0   0   0   1   -360   360;
    42	43	0.0003999	0.0000983	0   9900   0   0   0   0   1   -360   360;
    43	44	0.0003999	0.0000983	0   9900   0   0   0   0   1   -360   360;
    43	45	0.0003999	0.0000983	0   9900   0   0   0   0   1   -360   360;

];

%%-----  OPF Data  -----%%
%% generator cost data
%	1	startup	shutdown	n	x1	y1	...	xn	yn
%	2	startup	shutdown	n	c(n-1)	...	c0
mpc.gencost = [
	2	0	0	3	0.0430293	20	0;
];

% Warnings from cdf2matp conversion:
%
% ***** Qmax = Qmin at generator at bus    1 (Qmax set to Qmin + 10)
% ***** area data conversion not yet implemented (creating dummy area data)
% ***** MVA limit of branch 1 - 2 not given, set to 9900
% ***** MVA limit of branch 1 - 5 not given, set to 9900
% ***** MVA limit of branch 2 - 3 not given, set to 9900
% ***** MVA limit of branch 2 - 4 not given, set to 9900
% ***** MVA limit of branch 2 - 5 not given, set to 9900
% ***** MVA limit of branch 3 - 4 not given, set to 9900
% ***** MVA limit of branch 4 - 5 not given, set to 9900
% ***** MVA limit of branch 4 - 7 not given, set to 9900
% ***** MVA limit of branch 4 - 9 not given, set to 9900
% ***** MVA limit of branch 5 - 6 not given, set to 9900
% ***** MVA limit of branch 6 - 11 not given, set to 9900
% ***** MVA limit of branch 6 - 12 not given, set to 9900
% ***** MVA limit of branch 6 - 13 not given, set to 9900
% ***** MVA limit of branch 7 - 8 not given, set to 9900
% ***** MVA limit of branch 7 - 9 not given, set to 9900
% ***** MVA limit of branch 9 - 10 not given, set to 9900
% ***** MVA limit of branch 9 - 14 not given, set to 9900
% ***** MVA limit of branch 10 - 11 not given, set to 9900
% ***** MVA limit of branch 12 - 13 not given, set to 9900
% ***** MVA limit of branch 13 - 14 not given, set to 9900
